*SRC=B140HB;DI_B140HB;Diodes;Si;  40.0V  1.00A  10.0ns   Diodes Inc. Schottky
.MODEL DI_B140HB D  ( IS=31.0u RS=42.1m BV=40.0 IBV=1.00m
+ CJO=159p  M=0.333 N=1.70 TT=14.4n )
