*----------------------------------------------------------------------
* SPICE Netlist Generated by TDK Corporation
* Copyright(C) 2015 TDK Corporation.
* All Rights Reserved.
*----------------------------------------------------------------------
* TDK P/N: C1608C0G1H470J080AA (Multilayer Ceramic Chip Capacitor)
* Property: C=47pF
* Size(LxWxT): 1.6x0.8x0.8mm, 0.063x0.031x0.031inches
* Model Type: Precise Model
* Model Generated on June 29, 2015
*----------------------------------------------------------------------
* Terms and conditions regarding TDK Simulation Models:
* 1)This simulation model is being provided solely for informational
*   purposes. Please refer to the specifications of the products in
*   terms of detailed characteristics of such products.
* 2)In no event shall TDK Corporation of any of its subsidiaries be
*   liable for any loss or damage arising, directly or indirectly,
*   from any information contained in this simulation model, including,
*   but not limited to loss or damages arising from any inaccuracies,
*   omissions or errors in connection with such information.
* 3)Any and all copyrights on this simulation model are owned by
*   TDK Corporation.  Duplication or redistribution of this simulation
*   model without prior written permission from TDK Corporation
*   is prohibited.
* 4)This simulation model is subject to any modification or change
*   without any prior notice.
* 5)Neither TDK Corporation nor any of its subsidiaries shall make any
*   warranty, express or implied, including but not limited to the
*   correctness, implied warranties of merchantability and fitness for
*   a particular purpose with respect to this simulation models.
* 6)The use of this simulation model shall be deemed to have consented
*   to the terms and conditions hereof.
*----------------------------------------------------------------------
* External Node Assignments:
*
*  n1 ---| |--- n2
*
*----------------------------------------------------------------------
* Applicable Conditions:
*   Temperature = 25 degC
*   DC Bias Voltage = 0 V
*   Small Signal Operation
*----------------------------------------------------------------------
.SUBCKT C1608C0G1H470J080AA_p n1 n2
C1 n1 11 4.70000000E-11
L1 11 12 3.95274792E-10
L2 12 13 5.66538442E-11
L3 13 14 1.28692145E-10
L4 14 15 3.12570978E-10
L5 15 16 9.26402121E-10
R1 n2 12 5.76177487E-01
R2 n2 13 2.66460320E-01
R3 n2 14 1.23227831E-01
R4 n2 15 5.69882165E-02
R5 n2 16 2.63548972E-02
R6 n1 11 1.00000000E+10
.ENDS C1608C0G1H470J080AA_p
*----------------------------------------------------------------------
